Wave Ice Model (WAVEWATCH III and CICE).
Summary of the parameters used in each run.
Benjamin Ward
McGill University
|exp           |year_init     |month_init    |day_init      |sec_init      |dtCoup        |ndtCoup       |description   
|case62        |2005          |1             |1             |0             |3600s         |24             | none